# generated using pymatgen
data_H16C16NO
_symmetry_space_group_name_H-M   'P 1'
_cell_length_a   39.30138660
_cell_length_b   39.30138660
_cell_length_c   5.16885175
_cell_angle_alpha   90.00000000
_cell_angle_beta   90.00000000
_cell_angle_gamma   120.00000000
_symmetry_Int_Tables_number   1
_chemical_formula_structural   H16C16NO
_chemical_formula_sum   'H96 C96 N6 O6'
_cell_volume   6914.17637802
_cell_formula_units_Z   6
loop_
 _symmetry_equiv_pos_site_id
 _symmetry_equiv_pos_as_xyz
  1  'x, y, z'
loop_
 _atom_site_type_symbol
 _atom_site_label
 _atom_site_symmetry_multiplicity
 _atom_site_fract_x
 _atom_site_fract_y
 _atom_site_fract_z
 _atom_site_occupancy
  H  H0  1  0.52354801  0.32211303  0.40657134  1
  H  H1  1  0.51359475  0.33945903  0.69847451  1
  H  H2  1  0.50474224  0.35488670  0.39495415  1
  H  H3  1  0.47645199  0.67788697  0.40657134  1
  H  H4  1  0.48640525  0.66054097  0.69847451  1
  H  H5  1  0.49525776  0.64511330  0.39495415  1
  H  H6  1  0.32211303  0.79856502  0.40657134  1
  H  H7  1  0.33945903  0.82586427  0.69847451  1
  H  H8  1  0.35488670  0.85014446  0.39495415  1
  H  H9  1  0.67788697  0.20143498  0.40657134  1
  H  H10  1  0.66054097  0.17413573  0.69847451  1
  H  H11  1  0.64511330  0.14985554  0.39495415  1
  H  H12  1  0.79856502  0.47645199  0.40657134  1
  H  H13  1  0.82586427  0.48640525  0.69847451  1
  H  H14  1  0.85014446  0.49525776  0.39495415  1
  H  H15  1  0.20143498  0.52354801  0.40657134  1
  H  H16  1  0.17413573  0.51359475  0.69847451  1
  H  H17  1  0.14985554  0.50474224  0.39495415  1
  H  H18  1  0.90257419  0.40701379  0.40657134  1
  H  H19  1  0.88536187  0.37968859  0.69847451  1
  H  H20  1  0.87005309  0.35538534  0.39495415  1
  H  H21  1  0.97436636  0.40263883  0.40657134  1
  H  H22  1  0.95043730  0.40263883  0.69847451  1
  H  H23  1  0.92915459  0.40263883  0.39495415  1
  H  H24  1  0.42827247  0.02563364  0.40657134  1
  H  H25  1  0.45220153  0.04956270  0.69847451  1
  H  H26  1  0.47348425  0.07084541  0.39495415  1
  H  H27  1  0.50443960  0.09742581  0.40657134  1
  H  H28  1  0.49432672  0.11463813  0.69847451  1
  H  H29  1  0.48533225  0.12994691  0.39495415  1
  H  H30  1  0.59298621  0.49556040  0.40657134  1
  H  H31  1  0.62031141  0.50567328  0.69847451  1
  H  H32  1  0.64461466  0.51466775  0.39495415  1
  H  H33  1  0.59736117  0.57172753  0.40657134  1
  H  H34  1  0.59736117  0.54779847  0.69847451  1
  H  H35  1  0.59736117  0.52651575  0.39495415  1
  H  H36  1  0.02563364  0.59736117  0.40657134  1
  H  H37  1  0.04956270  0.59736117  0.69847451  1
  H  H38  1  0.07084541  0.59736117  0.39495415  1
  H  H39  1  0.09742581  0.59298621  0.40657134  1
  H  H40  1  0.11463813  0.62031141  0.69847451  1
  H  H41  1  0.12994691  0.64461466  0.39495415  1
  H  H42  1  0.40701379  0.50443960  0.40657134  1
  H  H43  1  0.37968859  0.49432672  0.69847451  1
  H  H44  1  0.35538534  0.48533225  0.39495415  1
  H  H45  1  0.40263883  0.42827247  0.40657134  1
  H  H46  1  0.40263883  0.45220153  0.69847451  1
  H  H47  1  0.40263883  0.47348425  0.39495415  1
  H  H48  1  0.49556040  0.90257419  0.40657134  1
  H  H49  1  0.50567328  0.88536187  0.69847451  1
  H  H50  1  0.51466775  0.87005309  0.39495415  1
  H  H51  1  0.57172753  0.97436636  0.40657134  1
  H  H52  1  0.54779847  0.95043730  0.69847451  1
  H  H53  1  0.52651575  0.92915459  0.39495415  1
  H  H54  1  0.40263883  0.92827247  0.40657134  1
  H  H55  1  0.40263883  0.95220153  0.69847451  1
  H  H56  1  0.40263883  0.97348425  0.39495415  1
  H  H57  1  0.40380832  0.89580826  0.50000000  1
  H  H58  1  0.59736117  0.07172753  0.40657134  1
  H  H59  1  0.59736117  0.04779847  0.69847451  1
  H  H60  1  0.59736117  0.02651575  0.39495415  1
  H  H61  1  0.59619168  0.10419174  0.50000000  1
  H  H62  1  0.47436636  0.40263883  0.40657134  1
  H  H63  1  0.45043730  0.40263883  0.69847451  1
  H  H64  1  0.42915459  0.40263883  0.39495415  1
  H  H65  1  0.50800006  0.40380832  0.50000000  1
  H  H66  1  0.52563364  0.59736117  0.40657134  1
  H  H67  1  0.54956270  0.59736117  0.69847451  1
  H  H68  1  0.57084541  0.59736117  0.39495415  1
  H  H69  1  0.49199994  0.59619168  0.50000000  1
  H  H70  1  0.60202944  0.33156923  0.50000000  1
  H  H71  1  0.59364238  0.34634229  0.50000000  1
  H  H72  1  0.67330966  0.47180118  0.50000000  1
  H  H73  1  0.66843077  0.27046021  0.50000000  1
  H  H74  1  0.65365771  0.24730009  0.50000000  1
  H  H75  1  0.52819882  0.20150848  0.50000000  1
  H  H76  1  0.72953979  0.39797056  0.50000000  1
  H  H77  1  0.75269991  0.40635762  0.50000000  1
  H  H78  1  0.79849152  0.32669034  0.50000000  1
  H  H79  1  0.07172753  0.47436636  0.40657134  1
  H  H80  1  0.04779847  0.45043730  0.69847451  1
  H  H81  1  0.02651575  0.42915459  0.39495415  1
  H  H82  1  0.10419174  0.50800006  0.50000000  1
  H  H83  1  0.92827247  0.52563364  0.40657134  1
  H  H84  1  0.95220153  0.54956270  0.69847451  1
  H  H85  1  0.97348425  0.57084541  0.39495415  1
  H  H86  1  0.89580826  0.49199994  0.50000000  1
  H  H87  1  0.39797056  0.66843077  0.50000000  1
  H  H88  1  0.40635762  0.65365771  0.50000000  1
  H  H89  1  0.32669034  0.52819882  0.50000000  1
  H  H90  1  0.33156923  0.72953979  0.50000000  1
  H  H91  1  0.34634229  0.75269991  0.50000000  1
  H  H92  1  0.47180118  0.79849152  0.50000000  1
  H  H93  1  0.27046021  0.60202944  0.50000000  1
  H  H94  1  0.24730009  0.59364238  0.50000000  1
  H  H95  1  0.20150848  0.67330966  0.50000000  1
  C  C96  1  0.52488846  0.34793703  0.50000000  1
  C  C97  1  0.47511154  0.65206297  0.50000000  1
  C  C98  1  0.34793703  0.82304856  0.50000000  1
  C  C99  1  0.65206297  0.17695144  0.50000000  1
  C  C100  1  0.82304856  0.47511154  0.50000000  1
  C  C101  1  0.17695144  0.52488846  0.50000000  1
  C  C102  1  0.87683352  0.38243348  0.50000000  1
  C  C103  1  0.95717599  0.41435197  0.50000000  1
  C  C104  1  0.45717599  0.04282401  0.50000000  1
  C  C105  1  0.50559995  0.12316648  0.50000000  1
  C  C106  1  0.61756652  0.49440005  0.50000000  1
  C  C107  1  0.58564803  0.54282401  0.50000000  1
  C  C108  1  0.04282401  0.58564803  0.50000000  1
  C  C109  1  0.12316648  0.61756652  0.50000000  1
  C  C110  1  0.38243348  0.50559995  0.50000000  1
  C  C111  1  0.41435197  0.45717599  0.50000000  1
  C  C112  1  0.49440005  0.87683352  0.50000000  1
  C  C113  1  0.54282401  0.95717599  0.50000000  1
  C  C114  1  0.41435197  0.95717599  0.50000000  1
  C  C115  1  0.42718151  0.88778164  0.50000000  1
  C  C116  1  0.47940980  0.95881959  0.50000000  1
  C  C117  1  0.45881959  0.97940980  0.50000000  1
  C  C118  1  0.52059020  0.97940980  0.50000000  1
  C  C119  1  0.58564803  0.04282401  0.50000000  1
  C  C120  1  0.57281849  0.11221836  0.50000000  1
  C  C121  1  0.52059020  0.04118041  0.50000000  1
  C  C122  1  0.54118041  0.02059020  0.50000000  1
  C  C123  1  0.47940980  0.02059020  0.50000000  1
  C  C124  1  0.45717599  0.41435197  0.50000000  1
  C  C125  1  0.53939987  0.42718151  0.50000000  1
  C  C126  1  0.52059020  0.47940980  0.50000000  1
  C  C127  1  0.47940980  0.45881959  0.50000000  1
  C  C128  1  0.54118041  0.52059020  0.50000000  1
  C  C129  1  0.54282401  0.58564803  0.50000000  1
  C  C130  1  0.46060013  0.57281849  0.50000000  1
  C  C131  1  0.47940980  0.52059020  0.50000000  1
  C  C132  1  0.52059020  0.54118041  0.50000000  1
  C  C133  1  0.45881959  0.47940980  0.50000000  1
  C  C134  1  0.63025220  0.33286342  0.50000000  1
  C  C135  1  0.59811450  0.37596284  0.50000000  1
  C  C136  1  0.66600621  0.36809087  0.50000000  1
  C  C137  1  0.56637083  0.38255039  0.50000000  1
  C  C138  1  0.57271198  0.42083925  0.50000000  1
  C  C139  1  0.64325950  0.44734370  0.50000000  1
  C  C140  1  0.61097003  0.45301779  0.50000000  1
  C  C141  1  0.63596516  0.40870717  0.50000000  1
  C  C142  1  0.66713658  0.29738878  0.50000000  1
  C  C143  1  0.62403716  0.22215167  0.50000000  1
  C  C144  1  0.63190913  0.29791534  0.50000000  1
  C  C145  1  0.61744961  0.18382044  0.50000000  1
  C  C146  1  0.57916075  0.15187272  0.50000000  1
  C  C147  1  0.55265630  0.19591579  0.50000000  1
  C  C148  1  0.54698221  0.15795224  0.50000000  1
  C  C149  1  0.59129283  0.22725799  0.50000000  1
  C  C150  1  0.70261122  0.36974780  0.50000000  1
  C  C151  1  0.77784833  0.40188550  0.50000000  1
  C  C152  1  0.70208466  0.33399379  0.50000000  1
  C  C153  1  0.81617956  0.43362917  0.50000000  1
  C  C154  1  0.84812728  0.42728802  0.50000000  1
  C  C155  1  0.80408421  0.35674050  0.50000000  1
  C  C156  1  0.84204776  0.38902997  0.50000000  1
  C  C157  1  0.77274201  0.36403484  0.50000000  1
  C  C158  1  0.04282401  0.45717599  0.50000000  1
  C  C159  1  0.11221836  0.53939987  0.50000000  1
  C  C160  1  0.04118041  0.52059020  0.50000000  1
  C  C161  1  0.02059020  0.54118041  0.50000000  1
  C  C162  1  0.02059020  0.47940980  0.50000000  1
  C  C163  1  0.95717599  0.54282401  0.50000000  1
  C  C164  1  0.88778164  0.46060013  0.50000000  1
  C  C165  1  0.95881959  0.47940980  0.50000000  1
  C  C166  1  0.97940980  0.45881959  0.50000000  1
  C  C167  1  0.97940980  0.52059020  0.50000000  1
  C  C168  1  0.36974780  0.66713658  0.50000000  1
  C  C169  1  0.40188550  0.62403716  0.50000000  1
  C  C170  1  0.33399379  0.63190913  0.50000000  1
  C  C171  1  0.43362917  0.61744961  0.50000000  1
  C  C172  1  0.42728802  0.57916075  0.50000000  1
  C  C173  1  0.35674050  0.55265630  0.50000000  1
  C  C174  1  0.38902997  0.54698221  0.50000000  1
  C  C175  1  0.36403484  0.59129283  0.50000000  1
  C  C176  1  0.33286342  0.70261122  0.50000000  1
  C  C177  1  0.37596284  0.77784833  0.50000000  1
  C  C178  1  0.36809087  0.70208466  0.50000000  1
  C  C179  1  0.38255039  0.81617956  0.50000000  1
  C  C180  1  0.42083925  0.84812728  0.50000000  1
  C  C181  1  0.44734370  0.80408421  0.50000000  1
  C  C182  1  0.45301779  0.84204776  0.50000000  1
  C  C183  1  0.40870717  0.77274201  0.50000000  1
  C  C184  1  0.29738878  0.63025220  0.50000000  1
  C  C185  1  0.22215167  0.59811450  0.50000000  1
  C  C186  1  0.29791534  0.66600621  0.50000000  1
  C  C187  1  0.18382044  0.56637083  0.50000000  1
  C  C188  1  0.15187272  0.57271198  0.50000000  1
  C  C189  1  0.19591579  0.64325950  0.50000000  1
  C  C190  1  0.15795224  0.61097003  0.50000000  1
  C  C191  1  0.22725799  0.63596516  0.50000000  1
  N  N192  1  0.45912245  0.91824491  0.50000000  1
  N  N193  1  0.54087755  0.08175509  0.50000000  1
  N  N194  1  0.54087755  0.45912245  0.50000000  1
  N  N195  1  0.45912245  0.54087755  0.50000000  1
  N  N196  1  0.08175509  0.54087755  0.50000000  1
  N  N197  1  0.91824491  0.45912245  0.50000000  1
  O  O198  1  0.66966895  0.40490779  0.50000000  1
  O  O199  1  0.59509221  0.26476116  0.50000000  1
  O  O200  1  0.73523884  0.33033105  0.50000000  1
  O  O201  1  0.33033105  0.59509221  0.50000000  1
  O  O202  1  0.40490779  0.73523884  0.50000000  1
  O  O203  1  0.26476116  0.66966895  0.50000000  1
