# generated using pymatgen
data_H10C14NOF2
_symmetry_space_group_name_H-M   'P 1'
_cell_length_a   39.30138651
_cell_length_b   39.30138651
_cell_length_c   5.16885175
_cell_angle_alpha   90.00000000
_cell_angle_beta   90.00000000
_cell_angle_gamma   120.00000000
_symmetry_Int_Tables_number   1
_chemical_formula_structural   H10C14NOF2
_chemical_formula_sum   'H60 C84 N6 O6 F12'
_cell_volume   6914.17634531
_cell_formula_units_Z   6
loop_
 _symmetry_equiv_pos_site_id
 _symmetry_equiv_pos_as_xyz
  1  'x, y, z'
loop_
 _atom_site_type_symbol
 _atom_site_label
 _atom_site_symmetry_multiplicity
 _atom_site_fract_x
 _atom_site_fract_y
 _atom_site_fract_z
 _atom_site_occupancy
  H  H0  1  0.12994691  0.64461466  0.39495415  1
  H  H1  1  0.11463813  0.62031141  0.69847451  1
  H  H2  1  0.09742581  0.59298621  0.40657134  1
  H  H3  1  0.87005309  0.35538534  0.39495415  1
  H  H4  1  0.88536187  0.37968859  0.69847451  1
  H  H5  1  0.90257419  0.40701379  0.40657134  1
  H  H6  1  0.64461466  0.51466775  0.39495415  1
  H  H7  1  0.62031141  0.50567328  0.69847451  1
  H  H8  1  0.59298621  0.49556040  0.40657134  1
  H  H9  1  0.35538534  0.48533225  0.39495415  1
  H  H10  1  0.37968859  0.49432672  0.69847451  1
  H  H11  1  0.40701379  0.50443960  0.40657134  1
  H  H12  1  0.50567328  0.88536187  0.69847451  1
  H  H13  1  0.51466775  0.87005309  0.39495415  1
  H  H14  1  0.49556040  0.90257419  0.40657134  1
  H  H15  1  0.49432672  0.11463813  0.69847451  1
  H  H16  1  0.48533225  0.12994691  0.39495415  1
  H  H17  1  0.50443960  0.09742581  0.40657134  1
  H  H18  1  0.07172753  0.47436636  0.40657134  1
  H  H19  1  0.04779847  0.45043730  0.69847451  1
  H  H20  1  0.02651575  0.42915459  0.39495415  1
  H  H21  1  0.10419174  0.50800006  0.50000000  1
  H  H22  1  0.92827247  0.52563364  0.40657134  1
  H  H23  1  0.95220153  0.54956270  0.69847451  1
  H  H24  1  0.97348425  0.57084541  0.39495415  1
  H  H25  1  0.89580826  0.49199994  0.50000000  1
  H  H26  1  0.59736117  0.07172753  0.40657134  1
  H  H27  1  0.59736117  0.04779847  0.69847451  1
  H  H28  1  0.59736117  0.02651575  0.39495415  1
  H  H29  1  0.59619168  0.10419174  0.50000000  1
  H  H30  1  0.40263883  0.92827247  0.40657134  1
  H  H31  1  0.40263883  0.95220153  0.69847451  1
  H  H32  1  0.40263883  0.97348425  0.39495415  1
  H  H33  1  0.40380832  0.89580826  0.50000000  1
  H  H34  1  0.60202944  0.33156923  0.50000000  1
  H  H35  1  0.59364238  0.34634229  0.50000000  1
  H  H36  1  0.67330966  0.47180118  0.50000000  1
  H  H37  1  0.72953979  0.39797056  0.50000000  1
  H  H38  1  0.75269991  0.40635762  0.50000000  1
  H  H39  1  0.79849152  0.32669034  0.50000000  1
  H  H40  1  0.66843077  0.27046021  0.50000000  1
  H  H41  1  0.65365771  0.24730009  0.50000000  1
  H  H42  1  0.52819882  0.20150848  0.50000000  1
  H  H43  1  0.52563364  0.59736117  0.40657134  1
  H  H44  1  0.54956270  0.59736117  0.69847451  1
  H  H45  1  0.57084541  0.59736117  0.39495415  1
  H  H46  1  0.49199994  0.59619168  0.50000000  1
  H  H47  1  0.47436636  0.40263883  0.40657134  1
  H  H48  1  0.45043730  0.40263883  0.69847451  1
  H  H49  1  0.42915459  0.40263883  0.39495415  1
  H  H50  1  0.50800006  0.40380832  0.50000000  1
  H  H51  1  0.39797056  0.66843077  0.50000000  1
  H  H52  1  0.40635762  0.65365771  0.50000000  1
  H  H53  1  0.32669034  0.52819882  0.50000000  1
  H  H54  1  0.27046021  0.60202944  0.50000000  1
  H  H55  1  0.24730009  0.59364238  0.50000000  1
  H  H56  1  0.20150848  0.67330966  0.50000000  1
  H  H57  1  0.33156923  0.72953979  0.50000000  1
  H  H58  1  0.34634229  0.75269991  0.50000000  1
  H  H59  1  0.47180118  0.79849152  0.50000000  1
  C  C60  1  0.12316647  0.61756652  0.50000000  1
  C  C61  1  0.87683353  0.38243348  0.50000000  1
  C  C62  1  0.61756652  0.49440005  0.50000000  1
  C  C63  1  0.38243348  0.50559995  0.50000000  1
  C  C64  1  0.49440005  0.87683353  0.50000000  1
  C  C65  1  0.50559995  0.12316647  0.50000000  1
  C  C66  1  0.02059020  0.54118041  0.50000000  1
  C  C67  1  0.04282401  0.45717599  0.50000000  1
  C  C68  1  0.11221836  0.53939987  0.50000000  1
  C  C69  1  0.04118041  0.52059020  0.50000000  1
  C  C70  1  0.02059020  0.47940980  0.50000000  1
  C  C71  1  0.97940980  0.45881959  0.50000000  1
  C  C72  1  0.95717599  0.54282401  0.50000000  1
  C  C73  1  0.88778164  0.46060013  0.50000000  1
  C  C74  1  0.95881959  0.47940980  0.50000000  1
  C  C75  1  0.97940980  0.52059020  0.50000000  1
  C  C76  1  0.47940980  0.02059020  0.50000000  1
  C  C77  1  0.58564803  0.04282401  0.50000000  1
  C  C78  1  0.57281849  0.11221836  0.50000000  1
  C  C79  1  0.52059020  0.04118041  0.50000000  1
  C  C80  1  0.54118041  0.02059020  0.50000000  1
  C  C81  1  0.52059020  0.97940980  0.50000000  1
  C  C82  1  0.41435197  0.95717599  0.50000000  1
  C  C83  1  0.42718151  0.88778164  0.50000000  1
  C  C84  1  0.47940980  0.95881959  0.50000000  1
  C  C85  1  0.45881959  0.97940980  0.50000000  1
  C  C86  1  0.56637083  0.38255039  0.50000000  1
  C  C87  1  0.63025220  0.33286342  0.50000000  1
  C  C88  1  0.59811450  0.37596284  0.50000000  1
  C  C89  1  0.66600622  0.36809087  0.50000000  1
  C  C90  1  0.57271198  0.42083926  0.50000000  1
  C  C91  1  0.64325950  0.44734370  0.50000000  1
  C  C92  1  0.61097003  0.45301779  0.50000000  1
  C  C93  1  0.63596516  0.40870717  0.50000000  1
  C  C94  1  0.81617956  0.43362917  0.50000000  1
  C  C95  1  0.70261122  0.36974780  0.50000000  1
  C  C96  1  0.77784833  0.40188550  0.50000000  1
  C  C97  1  0.70208466  0.33399378  0.50000000  1
  C  C98  1  0.84812728  0.42728802  0.50000000  1
  C  C99  1  0.80408420  0.35674050  0.50000000  1
  C  C100  1  0.84204776  0.38902997  0.50000000  1
  C  C101  1  0.77274201  0.36403484  0.50000000  1
  C  C102  1  0.61744961  0.18382044  0.50000000  1
  C  C103  1  0.66713658  0.29738878  0.50000000  1
  C  C104  1  0.62403716  0.22215167  0.50000000  1
  C  C105  1  0.63190913  0.29791534  0.50000000  1
  C  C106  1  0.57916074  0.15187272  0.50000000  1
  C  C107  1  0.55265630  0.19591580  0.50000000  1
  C  C108  1  0.54698221  0.15795224  0.50000000  1
  C  C109  1  0.59129283  0.22725799  0.50000000  1
  C  C110  1  0.45881959  0.47940980  0.50000000  1
  C  C111  1  0.54282401  0.58564803  0.50000000  1
  C  C112  1  0.46060013  0.57281849  0.50000000  1
  C  C113  1  0.47940980  0.52059020  0.50000000  1
  C  C114  1  0.52059020  0.54118041  0.50000000  1
  C  C115  1  0.54118041  0.52059020  0.50000000  1
  C  C116  1  0.45717599  0.41435197  0.50000000  1
  C  C117  1  0.53939987  0.42718151  0.50000000  1
  C  C118  1  0.52059020  0.47940980  0.50000000  1
  C  C119  1  0.47940980  0.45881959  0.50000000  1
  C  C120  1  0.43362917  0.61744961  0.50000000  1
  C  C121  1  0.36974780  0.66713658  0.50000000  1
  C  C122  1  0.40188550  0.62403716  0.50000000  1
  C  C123  1  0.33399378  0.63190913  0.50000000  1
  C  C124  1  0.42728802  0.57916074  0.50000000  1
  C  C125  1  0.35674050  0.55265630  0.50000000  1
  C  C126  1  0.38902997  0.54698221  0.50000000  1
  C  C127  1  0.36403484  0.59129283  0.50000000  1
  C  C128  1  0.18382044  0.56637083  0.50000000  1
  C  C129  1  0.29738878  0.63025220  0.50000000  1
  C  C130  1  0.22215167  0.59811450  0.50000000  1
  C  C131  1  0.29791534  0.66600622  0.50000000  1
  C  C132  1  0.15187272  0.57271198  0.50000000  1
  C  C133  1  0.19591580  0.64325950  0.50000000  1
  C  C134  1  0.15795224  0.61097003  0.50000000  1
  C  C135  1  0.22725799  0.63596516  0.50000000  1
  C  C136  1  0.38255039  0.81617956  0.50000000  1
  C  C137  1  0.33286342  0.70261122  0.50000000  1
  C  C138  1  0.37596284  0.77784833  0.50000000  1
  C  C139  1  0.36809087  0.70208466  0.50000000  1
  C  C140  1  0.42083926  0.84812728  0.50000000  1
  C  C141  1  0.44734370  0.80408420  0.50000000  1
  C  C142  1  0.45301779  0.84204776  0.50000000  1
  C  C143  1  0.40870717  0.77274201  0.50000000  1
  N  N144  1  0.08175509  0.54087755  0.50000000  1
  N  N145  1  0.91824491  0.45912245  0.50000000  1
  N  N146  1  0.54087755  0.08175509  0.50000000  1
  N  N147  1  0.45912245  0.91824491  0.50000000  1
  N  N148  1  0.45912245  0.54087755  0.50000000  1
  N  N149  1  0.54087755  0.45912245  0.50000000  1
  O  O150  1  0.66966895  0.40490779  0.50000000  1
  O  O151  1  0.73523884  0.33033105  0.50000000  1
  O  O152  1  0.59509221  0.26476116  0.50000000  1
  O  O153  1  0.33033105  0.59509221  0.50000000  1
  O  O154  1  0.26476116  0.66966895  0.50000000  1
  O  O155  1  0.40490779  0.73523884  0.50000000  1
  F  F156  1  0.04019812  0.58039624  0.50000000  1
  F  F157  1  0.95980188  0.41960376  0.50000000  1
  F  F158  1  0.45980188  0.04019812  0.50000000  1
  F  F159  1  0.54019812  0.95980188  0.50000000  1
  F  F160  1  0.52978769  0.35202500  0.50000000  1
  F  F161  1  0.82223731  0.47021231  0.50000000  1
  F  F162  1  0.64797500  0.17776269  0.50000000  1
  F  F163  1  0.41960376  0.45980188  0.50000000  1
  F  F164  1  0.58039624  0.54019812  0.50000000  1
  F  F165  1  0.47021231  0.64797500  0.50000000  1
  F  F166  1  0.17776269  0.52978769  0.50000000  1
  F  F167  1  0.35202500  0.82223731  0.50000000  1
