# generated using pymatgen
data_H4C12NO5
_symmetry_space_group_name_H-M   'P 1'
_cell_length_a   39.30138637
_cell_length_b   39.30138637
_cell_length_c   3.60000000
_cell_angle_alpha   90.00000000
_cell_angle_beta   90.00000000
_cell_angle_gamma   120.00000000
_symmetry_Int_Tables_number   1
_chemical_formula_structural   H4C12NO5
_chemical_formula_sum   'H24 C72 N6 O30'
_cell_volume   4815.58300982
_cell_formula_units_Z   6
loop_
 _symmetry_equiv_pos_site_id
 _symmetry_equiv_pos_as_xyz
  1  'x, y, z'
loop_
 _atom_site_type_symbol
 _atom_site_label
 _atom_site_symmetry_multiplicity
 _atom_site_fract_x
 _atom_site_fract_y
 _atom_site_fract_z
 _atom_site_occupancy
  H  H0  1  0.89580826  0.49199994  0.50000000  1
  H  H1  1  0.10419174  0.50800006  0.50000000  1
  H  H2  1  0.59619168  0.10419174  0.50000000  1
  H  H3  1  0.40380832  0.89580826  0.50000000  1
  H  H4  1  0.60202944  0.33156923  0.50000000  1
  H  H5  1  0.59364237  0.34634229  0.50000000  1
  H  H6  1  0.67330966  0.47180118  0.50000000  1
  H  H7  1  0.72953979  0.39797056  0.50000000  1
  H  H8  1  0.75269991  0.40635763  0.50000000  1
  H  H9  1  0.79849152  0.32669034  0.50000000  1
  H  H10  1  0.66843077  0.27046021  0.50000000  1
  H  H11  1  0.65365771  0.24730009  0.50000000  1
  H  H12  1  0.52819882  0.20150848  0.50000000  1
  H  H13  1  0.49199994  0.59619168  0.50000000  1
  H  H14  1  0.50800006  0.40380832  0.50000000  1
  H  H15  1  0.39797056  0.66843077  0.50000000  1
  H  H16  1  0.40635763  0.65365771  0.50000000  1
  H  H17  1  0.32669034  0.52819882  0.50000000  1
  H  H18  1  0.27046021  0.60202944  0.50000000  1
  H  H19  1  0.24730009  0.59364237  0.50000000  1
  H  H20  1  0.20150848  0.67330966  0.50000000  1
  H  H21  1  0.33156923  0.72953979  0.50000000  1
  H  H22  1  0.34634229  0.75269991  0.50000000  1
  H  H23  1  0.47180118  0.79849152  0.50000000  1
  C  C24  1  0.88778164  0.46060013  0.50000000  1
  C  C25  1  0.95881960  0.47940980  0.50000000  1
  C  C26  1  0.97940980  0.52059020  0.50000000  1
  C  C27  1  0.02059020  0.54118041  0.50000000  1
  C  C28  1  0.11221836  0.53939987  0.50000000  1
  C  C29  1  0.04118040  0.52059020  0.50000000  1
  C  C30  1  0.97940980  0.45881959  0.50000000  1
  C  C31  1  0.02059020  0.47940980  0.50000000  1
  C  C32  1  0.52059020  0.97940980  0.50000000  1
  C  C33  1  0.54118041  0.02059020  0.50000000  1
  C  C34  1  0.57281849  0.11221836  0.50000000  1
  C  C35  1  0.52059020  0.04118040  0.50000000  1
  C  C36  1  0.42718151  0.88778164  0.50000000  1
  C  C37  1  0.47940980  0.95881960  0.50000000  1
  C  C38  1  0.45881959  0.97940980  0.50000000  1
  C  C39  1  0.47940980  0.02059020  0.50000000  1
  C  C40  1  0.56637083  0.38255039  0.50000000  1
  C  C41  1  0.63025220  0.33286342  0.50000000  1
  C  C42  1  0.59811450  0.37596284  0.50000000  1
  C  C43  1  0.66600622  0.36809087  0.50000000  1
  C  C44  1  0.57271198  0.42083926  0.50000000  1
  C  C45  1  0.64325950  0.44734370  0.50000000  1
  C  C46  1  0.61097003  0.45301779  0.50000000  1
  C  C47  1  0.63596516  0.40870717  0.50000000  1
  C  C48  1  0.81617956  0.43362917  0.50000000  1
  C  C49  1  0.70261122  0.36974780  0.50000000  1
  C  C50  1  0.77784833  0.40188550  0.50000000  1
  C  C51  1  0.70208466  0.33399378  0.50000000  1
  C  C52  1  0.84812728  0.42728802  0.50000000  1
  C  C53  1  0.80408421  0.35674050  0.50000000  1
  C  C54  1  0.84204776  0.38902997  0.50000000  1
  C  C55  1  0.77274201  0.36403484  0.50000000  1
  C  C56  1  0.61744961  0.18382044  0.50000000  1
  C  C57  1  0.66713658  0.29738878  0.50000000  1
  C  C58  1  0.62403716  0.22215167  0.50000000  1
  C  C59  1  0.63190913  0.29791534  0.50000000  1
  C  C60  1  0.57916074  0.15187272  0.50000000  1
  C  C61  1  0.55265630  0.19591579  0.50000000  1
  C  C62  1  0.54698221  0.15795224  0.50000000  1
  C  C63  1  0.59129283  0.22725799  0.50000000  1
  C  C64  1  0.54118041  0.52059020  0.50000000  1
  C  C65  1  0.52059020  0.54118041  0.50000000  1
  C  C66  1  0.46060013  0.57281849  0.50000000  1
  C  C67  1  0.47940980  0.52059020  0.50000000  1
  C  C68  1  0.53939987  0.42718151  0.50000000  1
  C  C69  1  0.52059020  0.47940980  0.50000000  1
  C  C70  1  0.45881959  0.47940980  0.50000000  1
  C  C71  1  0.47940980  0.45881959  0.50000000  1
  C  C72  1  0.43362917  0.61744961  0.50000000  1
  C  C73  1  0.36974780  0.66713658  0.50000000  1
  C  C74  1  0.40188550  0.62403716  0.50000000  1
  C  C75  1  0.33399378  0.63190913  0.50000000  1
  C  C76  1  0.42728802  0.57916074  0.50000000  1
  C  C77  1  0.35674050  0.55265630  0.50000000  1
  C  C78  1  0.38902997  0.54698221  0.50000000  1
  C  C79  1  0.36403484  0.59129283  0.50000000  1
  C  C80  1  0.18382044  0.56637083  0.50000000  1
  C  C81  1  0.29738878  0.63025220  0.50000000  1
  C  C82  1  0.22215167  0.59811450  0.50000000  1
  C  C83  1  0.29791534  0.66600622  0.50000000  1
  C  C84  1  0.15187272  0.57271198  0.50000000  1
  C  C85  1  0.19591579  0.64325950  0.50000000  1
  C  C86  1  0.15795224  0.61097003  0.50000000  1
  C  C87  1  0.22725799  0.63596516  0.50000000  1
  C  C88  1  0.38255039  0.81617956  0.50000000  1
  C  C89  1  0.33286342  0.70261122  0.50000000  1
  C  C90  1  0.37596284  0.77784833  0.50000000  1
  C  C91  1  0.36809087  0.70208466  0.50000000  1
  C  C92  1  0.42083926  0.84812728  0.50000000  1
  C  C93  1  0.44734370  0.80408421  0.50000000  1
  C  C94  1  0.45301779  0.84204776  0.50000000  1
  C  C95  1  0.40870717  0.77274201  0.50000000  1
  N  N96  1  0.91824491  0.45912245  0.50000000  1
  N  N97  1  0.08175509  0.54087755  0.50000000  1
  N  N98  1  0.54087755  0.08175509  0.50000000  1
  N  N99  1  0.45912245  0.91824491  0.50000000  1
  N  N100  1  0.45912245  0.54087755  0.50000000  1
  N  N101  1  0.54087755  0.45912245  0.50000000  1
  O  O102  1  0.95980188  0.54019812  0.50000000  1
  O  O103  1  0.04019812  0.58039624  0.50000000  1
  O  O104  1  0.95980188  0.41960376  0.50000000  1
  O  O105  1  0.04019812  0.45980188  0.50000000  1
  O  O106  1  0.54019812  0.95980188  0.50000000  1
  O  O107  1  0.58039624  0.04019812  0.50000000  1
  O  O108  1  0.41960376  0.95980188  0.50000000  1
  O  O109  1  0.45980188  0.04019812  0.50000000  1
  O  O110  1  0.52978769  0.35202500  0.50000000  1
  O  O111  1  0.66966895  0.40490779  0.50000000  1
  O  O112  1  0.61678745  0.48951265  0.50000000  1
  O  O113  1  0.82223731  0.47021231  0.50000000  1
  O  O114  1  0.73523884  0.33033105  0.50000000  1
  O  O115  1  0.87272520  0.38321255  0.50000000  1
  O  O116  1  0.64797500  0.17776269  0.50000000  1
  O  O117  1  0.59509221  0.26476116  0.50000000  1
  O  O118  1  0.51048735  0.12727480  0.50000000  1
  O  O119  1  0.58039624  0.54019812  0.50000000  1
  O  O120  1  0.54019812  0.58039624  0.50000000  1
  O  O121  1  0.41960376  0.45980188  0.50000000  1
  O  O122  1  0.45980188  0.41960376  0.50000000  1
  O  O123  1  0.47021231  0.64797500  0.50000000  1
  O  O124  1  0.33033105  0.59509221  0.50000000  1
  O  O125  1  0.38321255  0.51048735  0.50000000  1
  O  O126  1  0.17776269  0.52978769  0.50000000  1
  O  O127  1  0.26476116  0.66966895  0.50000000  1
  O  O128  1  0.12727480  0.61678745  0.50000000  1
  O  O129  1  0.35202500  0.82223731  0.50000000  1
  O  O130  1  0.40490779  0.73523884  0.50000000  1
  O  O131  1  0.48951265  0.87272520  0.50000000  1
